         300
  Built with Packmol                                             
  H            6.717215       20.747832       12.879792
  O            5.925044       20.822492       12.585019
  H            6.080549       20.215097       12.013277
  H            6.560112       17.176575        7.755819
  O            5.719890       17.089627        7.836237
  H            5.741741       17.542084        8.553736
  H            7.522451       22.680580        2.505032
  O            8.085611       23.315152        2.517985
  H            8.597576       22.871226        2.007278
  H           24.128044       16.118764        6.137125
  O           24.500821       16.182266        6.896734
  H           24.411710       17.025677        6.869957
  H           17.195363        2.083279       20.213716
  O           17.811242        2.390550       20.709978
  H           18.392350        2.000001       20.230619
  H           20.715638       11.046715       16.051463
  O           21.348965       10.540564       16.301878
  H           21.829166       11.221269       16.463270
  H            7.038679       16.252520       20.851736
  O            7.007660       16.030580       20.033335
  H            6.211341       15.756775       20.137769
  H            7.712861        8.949596       24.997765
  O            7.694548        8.958459       24.149481
  H            7.027298        8.434343       24.158410
  H            9.945067        2.000000        5.384691
  O            9.440974        2.600113        5.709891
  H            9.255570        2.090653        6.362636
  H           21.847415       14.200545       13.210327
  O           22.217220       14.757388       13.732984
  H           22.966904       14.381940       13.602551
  H           24.194857       18.522562       12.658977
  O           24.771613       18.674651       12.055469
  H           24.375669       19.399141       11.859656
  H           10.254288       14.220043       14.983735
  O           11.062065       14.463793       15.073633
  H           11.320424       13.679238       14.879408
  H            2.000005       15.875864        2.003050
  O            2.600004       15.275870        2.006060
  H            2.000005       14.675868        2.006481
  H            3.247928       23.171735       17.246037
  O            2.568677       22.740748       17.515979
  H            3.071178       22.241163       17.982785
  H            9.416663       17.592445       10.961021
  O            9.891412       18.063456       11.483287
  H           10.084248       17.370303       11.933123
  H            3.353762       23.205080        3.569087
  O            2.544869       23.046788        3.367503
  H            2.755009       22.255115        3.145931
  H           17.302959       13.212504        8.925987
  O           17.650454       13.042055        9.681099
  H           17.034586       12.479720        9.837581
  H           20.728979       15.096733       20.491129
  O           20.099987       14.590287       20.230588
  H           20.655801       13.959755       20.114397
  H           17.386176       10.918219       18.924592
  O           16.865975       11.251647       19.506156
  H           16.809622       11.963416       19.047671
  H            6.329041       19.395480       17.180329
  O            7.177517       19.390225       17.188069
  H            7.182589       20.238502       17.208079
  H            7.898337       10.604490       19.214830
  O            7.323151       11.211623       19.358187
  H            7.943755       11.788320       19.405839
  H           12.162896       10.865262       20.196473
  O           12.512287       11.497809       19.751715
  H           12.232435       12.056217       20.326053
  H            2.000004        6.936389        8.815743
  O            2.600003        7.536365        8.810265
  H            2.000004        8.136313        8.802272
  H           16.726215       23.182895       10.682541
  O           15.901955       23.384337       10.678518
  H           15.704131       22.571993       10.533733
  H           19.286551       12.343189       25.000000
  O           19.626208       13.108090       24.860145
  H           20.400746       12.761790       24.847218
  H           17.653965       19.835874       16.298903
  O           17.300032       19.231983       15.819271
  H           16.762686       19.803633       15.496044
  H           16.360731       16.100465        2.000369
  O           16.201112       15.415838        2.475561
  H           15.468178       15.300882        2.063745
  H           22.478076       17.659618       17.030672
  O           21.652544       17.843177       16.961372
  H           21.834722       18.671569       16.985394
  H           19.569135       25.000000        7.871211
  O           20.017600       24.280046        7.894562
  H           20.729899       24.727374        8.006489
  H           13.582490        7.481382       17.706086
  O           13.067350        6.807436       17.726776
  H           13.544483        6.424678       17.138694
  H            2.159456       18.111471        5.698473
  O            2.309595       18.865529        6.057436
  H            2.004914       18.575406        6.794320
  H           11.281210       14.366916        7.563300
  O           11.837836       15.003208        7.490493
  H           12.452516       14.445353        7.314523
  H           16.681523        8.684101       24.649017
  O           16.011752        9.123583       24.369264
  H           15.540222        8.805925       24.999148
  H           16.138064        3.278638       15.440104
  O           16.038853        2.437928       15.382112
  H           15.196221        2.537677       15.377589
  H            6.083776        2.623608        2.403337
  O            6.136087        3.311351        2.897577
  H            6.044712        3.808225        2.215840
  H           21.390593       18.345363        3.327282
  O           20.558034       18.271162        3.181196
  H           20.395888       18.753071        3.860514
  H            6.689577       13.707477       10.454403
  O            5.963866       13.314320       10.257498
  H            6.296208       13.072683        9.515096
  H           24.873720       21.480042       15.810926
  O           24.995354       22.317919       15.867218
  H           24.158347       22.443486       15.806784
  H           22.747239       23.310323        4.367019
  O           22.696130       22.545149        4.003843
  H           23.496098       22.621081        3.731287
  H           15.651924       12.085567       14.714426
  O           16.260038       12.283508       14.156738
  H           16.188501       13.101886       14.369199
  H            3.623485        8.308157       16.891767
  O            3.637545        7.460838       16.934806
  H            2.953384        7.424060       16.434236
  H           23.623305        5.695531       24.014044
  O           24.452911        5.799719       23.869481
  H           24.479364        5.046966       23.478761
  H           24.831362       12.323785        8.953305
  O           24.998210       11.851740        9.638386
  H           24.842193       12.520312       10.137053
  H            8.150600       11.759606        2.025270
  O            7.867320       12.523008        2.263954
  H            8.592962       12.874808        1.999985
  H           17.233336       24.209131       14.911707
  O           16.626746       24.793784       15.012840
  H           16.042713       24.179930       15.058548
  H            8.130918       10.871138        6.201289
  O            8.974294       10.928900        6.127937
  H            9.017336       10.096777        5.967563
  H           12.387021       20.016764       16.370709
  O           12.442760       20.579778       15.738325
  H           12.121052       20.007637       15.200590
  H           15.756908       22.356299        5.027838
  O           16.393388       22.225644        5.573569
  H           15.967620       22.650743        6.171911
  H            3.998389       11.206485       22.179071
  O            3.625944       10.672924       21.634464
  H            3.078216       11.281803       21.412514
  H            3.724115        2.127208        7.100588
  O            4.121548        2.252980        7.839662
  H            4.852065        2.000001        7.489881
  O            4.165093       10.533939       13.150770
  C            4.700528        9.781925       12.552620
  O            5.235963        9.029910       11.954470
  O           24.995460       12.983489       19.508393
  C           24.997426       14.082109       19.563447
  O           24.999392       15.180729       19.618502
  O           10.719382        3.792699       25.000004
  C            9.762974        3.896275       24.466566
  O            8.806566        3.999851       23.933129
  O           17.666614       10.259241        2.008986
  C           17.768108        9.163934        2.008657
  O           17.869603        8.068626        2.008329
  O            5.562930       21.666136        7.020985
  C            5.659579       22.729282        7.286278
  O            5.756227       23.792428        7.551570
  O           24.490822        7.720120       11.011185
  C           24.575598        7.438668        9.951186
  O           24.660375        7.157216        8.891188
  O            5.197511       13.482742       16.248495
  C            4.290741       13.182459       16.794020
  O            3.383971       12.882175       17.339545
  O            6.365518       19.245316       24.557797
  C            5.462468       19.239222       23.929735
  O            4.559417       19.233127       23.301672
  O           22.000891        5.924354        2.000268
  C           21.191026        5.181409        2.046669
  O           20.381161        4.438465        2.093071
  O           11.883468        7.281599       22.666941
  C           12.800348        6.760653       22.353976
  O           13.717228        6.239707       22.041012
  O            3.800577       17.101550       14.183606
  C            2.900288       16.924374       13.576902
  O            2.000000       16.747197       12.970198
  O           21.383733       24.999526       23.859550
  C           21.017271       23.986494       23.637125
  O           20.650810       22.973462       23.414700
  O           11.169603       21.581134        4.983172
  C           10.324527       20.953607        5.302637
  O            9.479451       20.326081        5.622102
  O           16.390077       14.866672       22.533351
  C           15.789386       14.108667       23.057372
  O           15.188696       13.350661       23.581392
  O            7.489005        2.000981       20.279900
  C            6.580271        2.618098       20.221847
  O            5.671538        3.235215       20.163794
  O            6.784922        4.958628        9.970368
  C            7.183765        5.442840        9.066784
  O            7.582607        5.927052        8.163201
  O            3.851847       15.237982       24.978667
  C            2.926502       14.934056       24.467427
  O            2.001158       14.630130       23.956187
  O            4.435145       24.996143       21.025693
  C            5.292061       24.539480       21.542562
  O            6.148978       24.082816       22.059430
  O           16.604839       18.869922       24.820553
  C           17.665310       19.148043       24.910279
  O           18.725781       19.426163       25.000005
  O           11.427631        8.779440        1.999998
  C           11.422904        7.685560        2.115777
  O           11.418178        6.591680        2.231556
  O           21.672793       24.891228       12.541893
  C           22.725896       24.945585       12.228814
  O           23.779000       24.999942       11.915735
  O           11.489846       22.524397       21.953724
  C           11.080106       21.735761       22.601927
  O           10.670366       20.947126       23.250130
  O           15.432160        9.914318        6.300437
  C           14.424825       10.103334        5.900999
  O           13.417491       10.292350        5.501562
  O           16.248920       23.493972       23.164178
  C           15.914327       24.246986       22.435469
  O           15.579734       25.000000       21.706760
  O           22.188643        7.802639       19.639910
  C           21.342725        7.239078       19.219407
  O           20.496808        6.675517       18.798905
  O           12.639568       17.145047       22.507801
  C           12.398468       16.794436       21.493433
  O           12.157369       16.443824       20.479065
  O            5.969516       25.000000       11.741593
  C            7.054035       24.998310       11.925484
  O            8.138554       24.996619       12.109376
  O           16.441026       16.946117       11.290043
  C           15.379098       16.669533       11.366269
  O           14.317170       16.392949       11.442495
  O            9.954881        3.166707       16.554833
  C            8.892033        3.059466       16.292431
  O            7.829186        2.952225       16.030029
  O            3.764809        3.550484       14.506545
  C            2.985740        2.775244       14.551874
  O            2.206671        2.000004       14.597203
  O           18.338776        4.099341        5.972035
  C           17.729527        5.008263        5.859455
  O           17.120277        5.917186        5.746875
  O           13.940250        8.535965       10.321160
  C           13.493671        7.892119       11.093189
  O           13.047092        7.248272       11.865218
  O           20.563986       16.842371        9.941741
  C           20.674868       17.817049        9.444039
  O           20.785749       18.791727        8.946336
  O           22.586854        2.638233       19.172207
  C           23.256057        3.020857       18.387500
  O           23.925261        3.403482       17.602793
  O           13.783728       19.667404        2.069548
  C           12.975394       18.922160        2.034816
  O           12.167059       18.176916        2.000083
  O           16.577778        4.603645       10.920189
  C           17.404069        5.308281       10.744882
  O           18.230360        6.012916       10.569575
  O            2.071372       17.716631       18.164632
  C            2.035870       17.193778       19.131774
  O            2.000369       16.670924       20.098916
  O           13.053348       19.568636        8.616142
  C           13.919105       19.142563        8.088007
  O           14.784862       18.716490        7.559871
  O            2.662773       12.166822        7.214633
  C            3.021357       13.021196        6.621790
  O            3.379941       13.875570        6.028947
  O           23.558167        2.038816       11.621270
  C           22.969328        2.889291       11.247158
  O           22.380488        3.739767       10.873046
  O           19.401313       24.997676       18.832999
  C           19.510962       23.903897       18.792697
  O           19.620612       22.810118       18.752395
  O           12.936706        2.066893       10.646699
  C           12.112724        2.729296       10.342930
  O           11.288742        3.391699       10.039160
  O            5.782297       17.927594        3.223360
  C            6.706282       17.351664        3.380064
  O            7.630266       16.775733        3.536768
  O           10.065002       24.103993        8.364946
  C           11.156835       24.228866        8.412987
  O           12.248667       24.353740        8.461029
  O            9.313495       10.702750       12.260789
  C            9.443389       10.210897       11.285490
  O            9.573284        9.719044       10.310191
  O            2.012476        6.307501       24.417810
  C            2.008568        6.478575       23.331201
  O            2.004661        6.649650       22.244593
  O           17.452573       18.567998       20.485898
  C           16.492115       19.103280       20.454372
  O           15.531656       19.638562       20.422847
  O           20.260242       13.450556        3.556463
  C           19.829547       14.001505        4.405555
  O           19.398852       14.552453        5.254647
  O            8.443187        6.668002       13.775115
  C            8.172723        7.225463       14.684008
  O            7.902259        7.782924       15.592901
  O           21.233656       10.487426        7.420207
  C           20.511416       10.036589        6.723704
  O           19.789176        9.585752        6.027202
